feeders/1_BOES_1/004_chavesMT.dss
New Line.21CF_1126 phases=2 bus1=461401.3.1 bus2=21CF1126.3.1 r1=0.001 r0=0.001 x1=0 x0=0 c1=0 c0=0 length=0.001 switch=T
New Line.21CF_1175 phases=3 bus1=522821.1.2.3 bus2=21CF1175.1.2.3 r1=0.001 r0=0.001 x1=0 x0=0 c1=0 c0=0 length=0.001 switch=T
New Line.21CF_1176 phases=3 bus1=334891.1.2.3 bus2=21CF1176.1.2.3 r1=0.001 r0=0.001 x1=0 x0=0 c1=0 c0=0 length=0.001 switch=T
New Line.21CF_1178 phases=3 bus1=450671.1.2.3 bus2=21CF1178.1.2.3 r1=0.001 r0=0.001 x1=0 x0=0 c1=0 c0=0 length=0.001 switch=T
New Line.21CF_1179 phases=3 bus1=455491.1.2.3 bus2=21CF1179.1.2.3 r1=0.001 r0=0.001 x1=0 x0=0 c1=0 c0=0 length=0.001 switch=T
New Line.21CF_1180 phases=3 bus1=460851.1.2.3 bus2=21CF1180.1.2.3 r1=0.001 r0=0.001 x1=0 x0=0 c1=0 c0=0 length=0.001 switch=T
New Line.21CF_1217 phases=1 bus1=671271.1 bus2=21CF1217.1 r1=0.001 r0=0.001 x1=0 x0=0 c1=0 c0=0 length=0.001 switch=T
New Line.21CF_1642 phases=3 bus1=761511.1.2.3 bus2=21CF1642.1.2.3 r1=0.001 r0=0.001 x1=0 x0=0 c1=0 c0=0 length=0.001 switch=T
New Line.21CF_1793 phases=3 bus1=792801.1.2.3 bus2=21CF1793.1.2.3 r1=0.001 r0=0.001 x1=0 x0=0 c1=0 c0=0 length=0.001 switch=T
New Line.21CF_629 phases=3 bus1=294981.1.2.3 bus2=21CF629.1.2.3 r1=0.001 r0=0.001 x1=0 x0=0 c1=0 c0=0 length=0.001 switch=T
New Line.21CF_978 phases=1 bus1=642801.3 bus2=21CF978.3 r1=0.001 r0=0.001 x1=0 x0=0 c1=0 c0=0 length=0.001 switch=T
New Line.21CS_722 phases=3 bus1=14631.1.2.3 bus2=21CS722.1.2.3 r1=0.001 r0=0.001 x1=0 x0=0 c1=0 c0=0 length=0.001 switch=T
New Line.3CF_1014 phases=3 bus1=624391.1.2.3 bus2=3CF1014.1.2.3 r1=0.001 r0=0.001 x1=0 x0=0 c1=0 c0=0 length=0.001 switch=T
New Line.3CF_1028 phases=3 bus1=761811.1.2.3 bus2=3CF1028.1.2.3 r1=0.001 r0=0.001 x1=0 x0=0 c1=0 c0=0 length=0.001 switch=T
New Line.3CF_1177 phases=3 bus1=353621.1.2.3 bus2=3CF1177.1.2.3 r1=0.001 r0=0.001 x1=0 x0=0 c1=0 c0=0 length=0.001 switch=T
New Line.3CF_1291 phases=1 bus1=730611.1 bus2=3CF1291.1 r1=0.001 r0=0.001 x1=0 x0=0 c1=0 c0=0 length=0.001 switch=T
New Line.3CF_1328 phases=3 bus1=803601.1.2.3 bus2=3CF1328.1.2.3 r1=0.001 r0=0.001 x1=0 x0=0 c1=0 c0=0 length=0.001 switch=T
New Line.3CF_1330 phases=3 bus1=745441.1.2.3 bus2=3CF1330.1.2.3 r1=0.001 r0=0.001 x1=0 x0=0 c1=0 c0=0 length=0.001 switch=T
New Line.3CF_1343 phases=3 bus1=85381.1.2.3 bus2=3CF1343.1.2.3 r1=0.001 r0=0.001 x1=0 x0=0 c1=0 c0=0 length=0.001 switch=T
New Line.3CF_1374 phases=3 bus1=740921.1.2.3 bus2=3CF1374.1.2.3 r1=0.001 r0=0.001 x1=0 x0=0 c1=0 c0=0 length=0.001 switch=T
New Line.3CF_1381 phases=3 bus1=803621.1.2.3 bus2=3CF1381.1.2.3 r1=0.001 r0=0.001 x1=0 x0=0 c1=0 c0=0 length=0.001 switch=T
New Line.3CF_1440 phases=1 bus1=810601.2 bus2=3CF1440.2 r1=0.001 r0=0.001 x1=0 x0=0 c1=0 c0=0 length=0.001 switch=T
New Line.3CF_1455 phases=3 bus1=685611.1.2.3 bus2=3CF1455.1.2.3 r1=0.001 r0=0.001 x1=0 x0=0 c1=0 c0=0 length=0.001 switch=T
New Line.3CF_1456 phases=3 bus1=743021.1.2.3 bus2=3CF1456.1.2.3 r1=0.001 r0=0.001 x1=0 x0=0 c1=0 c0=0 length=0.001 switch=T
New Line.3CF_1528 phases=1 bus1=803181.2 bus2=3CF1528.2 r1=0.001 r0=0.001 x1=0 x0=0 c1=0 c0=0 length=0.001 switch=T
New Line.3CF_1540 phases=3 bus1=701571.1.2.3 bus2=3CF1540.1.2.3 r1=0.001 r0=0.001 x1=0 x0=0 c1=0 c0=0 length=0.001 switch=T
New Line.3CF_1617 phases=3 bus1=761411.1.2.3 bus2=3CF1617.1.2.3 r1=0.001 r0=0.001 x1=0 x0=0 c1=0 c0=0 length=0.001 switch=T
New Line.3CF_1628 phases=1 bus1=763101.1 bus2=3CF1628.1 r1=0.001 r0=0.001 x1=0 x0=0 c1=0 c0=0 length=0.001 switch=T
New Line.3CF_1634 phases=3 bus1=613411.1.2.3 bus2=3CF1634.1.2.3 r1=0.001 r0=0.001 x1=0 x0=0 c1=0 c0=0 length=0.001 switch=T
New Line.3CF_1666 phases=3 bus1=765011.1.2.3 bus2=3CF1666.1.2.3 r1=0.001 r0=0.001 x1=0 x0=0 c1=0 c0=0 length=0.001 switch=T
New Line.3CF_1705 phases=1 bus1=769481.1 bus2=3CF1705.1 r1=0.001 r0=0.001 x1=0 x0=0 c1=0 c0=0 length=0.001 switch=T
New Line.3CF_1800 phases=3 bus1=790511.1.2.3 bus2=3CF1800.1.2.3 r1=0.001 r0=0.001 x1=0 x0=0 c1=0 c0=0 length=0.001 switch=T
New Line.3CF_1805 phases=3 bus1=810701.1.2.3 bus2=3CF1805.1.2.3 r1=0.001 r0=0.001 x1=0 x0=0 c1=0 c0=0 length=0.001 switch=T
New Line.3CF_189 phases=3 bus1=273431.1.2.3 bus2=3CF189.1.2.3 r1=0.001 r0=0.001 x1=0 x0=0 c1=0 c0=0 length=0.001 switch=T
New Line.3CF_190 phases=3 bus1=134231.1.2.3 bus2=3CF190.1.2.3 r1=0.001 r0=0.001 x1=0 x0=0 c1=0 c0=0 length=0.001 switch=T
New Line.3CF_192 phases=3 bus1=341471.1.2.3 bus2=3CF192.1.2.3 r1=0.001 r0=0.001 x1=0 x0=0 c1=0 c0=0 length=0.001 switch=T
New Line.3CF_355 phases=3 bus1=343461.1.2.3 bus2=3CF355.1.2.3 r1=0.001 r0=0.001 x1=0 x0=0 c1=0 c0=0 length=0.001 switch=T
New Line.3CF_362 phases=3 bus1=803671.1.2.3 bus2=3CF362.1.2.3 r1=0.001 r0=0.001 x1=0 x0=0 c1=0 c0=0 length=0.001 switch=T
New Line.3CF_873 phases=3 bus1=471631.1.2.3 bus2=3CF873.1.2.3 r1=0.001 r0=0.001 x1=0 x0=0 c1=0 c0=0 length=0.001 switch=T
New Line.3CF_874 phases=3 bus1=313651.1.2.3 bus2=3CF874.1.2.3 r1=0.001 r0=0.001 x1=0 x0=0 c1=0 c0=0 length=0.001 switch=T
New Line.3CF_882 phases=3 bus1=610471.1.2.3 bus2=3CF882.1.2.3 r1=0.001 r0=0.001 x1=0 x0=0 c1=0 c0=0 length=0.001 switch=T
New Line.3CF_925 phases=3 bus1=635731.1.2.3 bus2=3CF925.1.2.3 r1=0.001 r0=0.001 x1=0 x0=0 c1=0 c0=0 length=0.001 switch=T
New Line.3CO_217 phases=3 bus1=148921.1.2.3 bus2=3CO217.1.2.3 r1=0.001 r0=0.001 x1=0 x0=0 c1=0 c0=0 length=0.001 switch=T
New Line.3CS_1078 phases=3 bus1=548111.1.2.3 bus2=3CS1078.1.2.3 r1=0.001 r0=0.001 x1=0 x0=0 c1=0 c0=0 length=0.001 switch=T
New Line.3CS_1570 phases=3 bus1=679671.1.2.3 bus2=3CS1570.1.2.3 r1=0.001 r0=0.001 x1=0 x0=0 c1=0 c0=0 length=0.001 switch=T
New Line.3CS_1881 phases=3 bus1=796741.1.2.3 bus2=3CS1881.1.2.3 r1=0.001 r0=0.001 x1=0 x0=0 c1=0 c0=0 length=0.001 switch=T
New Line.3CS_1909 phases=3 bus1=813111.1.2.3 bus2=3CS1909.1.2.3 r1=0.001 r0=0.001 x1=0 x0=0 c1=0 c0=0 length=0.001 switch=T
New Line.3CS_194 phases=3 bus1=133571.1.2.3 bus2=3CS194.1.2.3 r1=0.001 r0=0.001 x1=0 x0=0 c1=0 c0=0 length=0.001 switch=T
New Line.3CS_215 phases=3 bus1=665741.1.2.3 bus2=3CS215.1.2.3 r1=0.001 r0=0.001 x1=0 x0=0 c1=0 c0=0 length=0.001 switch=T
New Line.3CS_218 phases=3 bus1=329561.1.2.3 bus2=3CS218.1.2.3 r1=0.001 r0=0.001 x1=0 x0=0 c1=0 c0=0 length=0.001 switch=T
New Line.3CS_490 phases=3 bus1=803661.1.2.3 bus2=3CS490.1.2.3 r1=0.001 r0=0.001 x1=0 x0=0 c1=0 c0=0 length=0.001 switch=T
New Line.3CS_712 phases=3 bus1=329161.1.2.3 bus2=3CS712.1.2.3 r1=0.001 r0=0.001 x1=0 x0=0 c1=0 c0=0 length=0.001 switch=T
New Line.3CS_926 phases=3 bus1=281901.1.2.3 bus2=3CS926.1.2.3 r1=0.001 r0=0.001 x1=0 x0=0 c1=0 c0=0 length=0.001 switch=T
New Line.3DJ_108 phases=3 bus1=1_BOES_1.1.2.3 bus2=3DJ108.1.2.3 r1=0.001 r0=0.001 x1=0 x0=0 c1=0 c0=0 length=0.001 switch=T
New Line.3FR_209 phases=3 bus1=760341.1.2.3 bus2=3FR209.1.2.3 r1=0.001 r0=0.001 x1=0 x0=0 c1=0 c0=0 length=0.001 switch=T
New Line.3FR_281 phases=1 bus1=581651.3 bus2=3FR281.3 r1=0.001 r0=0.001 x1=0 x0=0 c1=0 c0=0 length=0.001 switch=T
New Line.3FR_375 phases=3 bus1=584021.1.2.3 bus2=3FR375.1.2.3 r1=0.001 r0=0.001 x1=0 x0=0 c1=0 c0=0 length=0.001 switch=T
New Line.3FR_485 phases=3 bus1=731431.1.2.3 bus2=3FR485.1.2.3 r1=0.001 r0=0.001 x1=0 x0=0 c1=0 c0=0 length=0.001 switch=T
New Line.3FS_186 phases=3 bus1=761821.1.2.3 bus2=3FS186.1.2.3 r1=0.001 r0=0.001 x1=0 x0=0 c1=0 c0=0 length=0.001 switch=T
New Line.3RL_1657 phases=3 bus1=767321.1.2.3 bus2=3RL1657.1.2.3 r1=0.001 r0=0.001 x1=0 x0=0 c1=0 c0=0 length=0.001 switch=T
New Line.3RL_1910 phases=3 bus1=814211.1.2.3 bus2=3RL1910.1.2.3 r1=0.001 r0=0.001 x1=0 x0=0 c1=0 c0=0 length=0.001 switch=T
New Line.3RL_216 phases=3 bus1=580861.1.2.3 bus2=3RL216.1.2.3 r1=0.001 r0=0.001 x1=0 x0=0 c1=0 c0=0 length=0.001 switch=T
